data_image0
_chemical_formula_structural       Zn6C12N24C24H24C12H36
_chemical_formula_sum              "Zn6 C48 N24 H60"
_cell_length_a       14.5933
_cell_length_b       14.5933
_cell_length_c       14.5933
_cell_angle_alpha    109.471
_cell_angle_beta     109.471
_cell_angle_gamma    109.471

_space_group_name_H-M_alt    "P 1"
_space_group_IT_number       1

loop_
  _space_group_symop_operation_xyz
  'x, y, z'

loop_
  _atom_site_type_symbol
  _atom_site_label
  _atom_site_symmetry_multiplicity
  _atom_site_fract_x
  _atom_site_fract_y
  _atom_site_fract_z
  _atom_site_occupancy
  Zn  Zn1       1.0  0.75000  0.25000  0.50000  1.0000
  Zn  Zn2       1.0  0.25000  0.75000  0.50000  1.0000
  Zn  Zn3       1.0  0.50000  0.75000  0.25000  1.0000
  Zn  Zn4       1.0  0.50000  0.25000  0.75000  1.0000
  Zn  Zn5       1.0  0.25000  0.50000  0.75000  1.0000
  Zn  Zn6       1.0  0.75000  0.50000  0.25000  1.0000
  C   C1        1.0  0.00000  0.38130  0.62930  1.0000
  C   C2        1.0  0.75200  0.37070  0.37070  1.0000
  C   C3        1.0  0.24800  0.61870  0.61870  1.0000
  C   C4        1.0  0.00000  0.62930  0.38130  1.0000
  C   C5        1.0  0.62930  0.00000  0.38130  1.0000
  C   C6        1.0  0.37070  0.75200  0.37070  1.0000
  C   C7        1.0  0.61870  0.24800  0.61870  1.0000
  C   C8        1.0  0.38130  1.00000  0.62930  1.0000
  C   C9        1.0  0.38130  0.62930  0.00000  1.0000
  C   C10       1.0  0.37070  0.37070  0.75200  1.0000
  C   C11       1.0  0.61870  0.61870  0.24800  1.0000
  C   C12       1.0  0.62930  0.38130  0.00000  1.0000
  N   N1        1.0  0.90560  0.28160  0.55260  1.0000
  N   N2        1.0  0.72900  0.35300  0.44740  1.0000
  N   N3        1.0  0.27100  0.71840  0.62400  1.0000
  N   N4        1.0  0.09440  0.64700  0.37600  1.0000
  N   N5        1.0  0.55260  0.90560  0.28160  1.0000
  N   N6        1.0  0.44740  0.72900  0.35300  1.0000
  N   N7        1.0  0.62400  0.27100  0.71840  1.0000
  N   N8        1.0  0.37600  0.09440  0.64700  1.0000
  N   N9        1.0  0.28160  0.55260  0.90560  1.0000
  N   N10       1.0  0.35300  0.44740  0.72900  1.0000
  N   N11       1.0  0.71840  0.62400  0.27100  1.0000
  N   N12       1.0  0.64700  0.37600  0.09440  1.0000
  N   N13       1.0  0.28160  0.90560  0.55260  1.0000
  N   N14       1.0  0.35300  0.72900  0.44740  1.0000
  N   N15       1.0  0.71840  0.27100  0.62400  1.0000
  N   N16       1.0  0.64700  0.09440  0.37600  1.0000
  N   N17       1.0  0.90560  0.55260  0.28160  1.0000
  N   N18       1.0  0.72900  0.44740  0.35300  1.0000
  N   N19       1.0  0.27100  0.62400  0.71840  1.0000
  N   N20       1.0  0.09440  0.37600  0.64700  1.0000
  N   N21       1.0  0.55260  0.28160  0.90560  1.0000
  N   N22       1.0  0.44740  0.35300  0.72900  1.0000
  N   N23       1.0  0.62400  0.71840  0.27100  1.0000
  N   N24       1.0  0.37600  0.64700  0.09440  1.0000
  C   C13       1.0  0.94360  0.20720  0.51880  1.0000
  C   C14       1.0  0.68840  0.42480  0.48120  1.0000
  C   C15       1.0  0.31160  0.79280  0.73640  1.0000
  C   C16       1.0  0.05640  0.57520  0.26360  1.0000
  C   C17       1.0  0.51880  0.94360  0.20720  1.0000
  C   C18       1.0  0.48120  0.68840  0.42480  1.0000
  C   C19       1.0  0.73640  0.31160  0.79280  1.0000
  C   C20       1.0  0.26360  0.05640  0.57520  1.0000
  C   C21       1.0  0.20720  0.51880  0.94360  1.0000
  C   C22       1.0  0.42480  0.48120  0.68840  1.0000
  C   C23       1.0  0.79280  0.73640  0.31160  1.0000
  C   C24       1.0  0.57520  0.26360  0.05640  1.0000
  C   C25       1.0  0.20720  0.94360  0.51880  1.0000
  C   C26       1.0  0.42480  0.68840  0.48120  1.0000
  C   C27       1.0  0.79280  0.31160  0.73640  1.0000
  C   C28       1.0  0.57520  0.05640  0.26360  1.0000
  C   C29       1.0  0.94360  0.51880  0.20720  1.0000
  C   C30       1.0  0.68840  0.48120  0.42480  1.0000
  C   C31       1.0  0.31160  0.73640  0.79280  1.0000
  C   C32       1.0  0.05640  0.26360  0.57520  1.0000
  C   C33       1.0  0.51880  0.20720  0.94360  1.0000
  C   C34       1.0  0.48120  0.42480  0.68840  1.0000
  C   C35       1.0  0.73640  0.79280  0.31160  1.0000
  C   C36       1.0  0.26360  0.57520  0.05640  1.0000
  H   H1        1.0  0.89820  0.13110  0.46590  1.0000
  H   H2        1.0  0.66520  0.43230  0.53410  1.0000
  H   H3        1.0  0.33480  0.86890  0.76710  1.0000
  H   H4        1.0  0.10180  0.56770  0.23290  1.0000
  H   H5        1.0  0.46590  0.89820  0.13110  1.0000
  H   H6        1.0  0.53410  0.66520  0.43230  1.0000
  H   H7        1.0  0.76710  0.33480  0.86890  1.0000
  H   H8        1.0  0.23290  0.10180  0.56770  1.0000
  H   H9        1.0  0.13110  0.46590  0.89820  1.0000
  H   H10       1.0  0.43230  0.53410  0.66520  1.0000
  H   H11       1.0  0.86890  0.76710  0.33480  1.0000
  H   H12       1.0  0.56770  0.23290  0.10180  1.0000
  H   H13       1.0  0.13110  0.89820  0.46590  1.0000
  H   H14       1.0  0.43230  0.66520  0.53410  1.0000
  H   H15       1.0  0.86890  0.33480  0.76710  1.0000
  H   H16       1.0  0.56770  0.10180  0.23290  1.0000
  H   H17       1.0  0.89820  0.46590  0.13110  1.0000
  H   H18       1.0  0.66520  0.53410  0.43230  1.0000
  H   H19       1.0  0.33480  0.76710  0.86890  1.0000
  H   H20       1.0  0.10180  0.23290  0.56770  1.0000
  H   H21       1.0  0.46590  0.13110  0.89820  1.0000
  H   H22       1.0  0.53410  0.43230  0.66520  1.0000
  H   H23       1.0  0.76710  0.86890  0.33480  1.0000
  H   H24       1.0  0.23290  0.56770  0.10180  1.0000
  C   C37       1.0  0.00000  0.48760  0.68460  1.0000
  C   C38       1.0  0.80300  0.31540  0.31540  1.0000
  C   C39       1.0  0.19700  0.51240  0.51240  1.0000
  C   C40       1.0  0.00000  0.68460  0.48760  1.0000
  C   C41       1.0  0.68460  0.00000  0.48760  1.0000
  C   C42       1.0  0.31540  0.80300  0.31540  1.0000
  C   C43       1.0  0.51240  0.19700  0.51240  1.0000
  C   C44       1.0  0.48760  0.00000  0.68460  1.0000
  C   C45       1.0  0.48760  0.68460  0.00000  1.0000
  C   C46       1.0  0.31540  0.31540  0.80300  1.0000
  C   C47       1.0  0.51240  0.51240  0.19700  1.0000
  C   C48       1.0  0.68460  0.48760  0.00000  1.0000
  H   H25       1.0  0.07580  0.54770  0.73750  1.0000
  H   H26       1.0  0.81020  0.33830  0.26250  1.0000
  H   H27       1.0  0.18980  0.45230  0.52810  1.0000
  H   H28       1.0  0.92420  0.66170  0.47190  1.0000
  H   H29       1.0  0.73750  0.07580  0.54770  1.0000
  H   H30       1.0  0.26250  0.81020  0.33830  1.0000
  H   H31       1.0  0.52810  0.18980  0.45230  1.0000
  H   H32       1.0  0.47190  0.92420  0.66170  1.0000
  H   H33       1.0  0.54770  0.73750  0.07580  1.0000
  H   H34       1.0  0.33830  0.26250  0.81020  1.0000
  H   H35       1.0  0.45230  0.52810  0.18980  1.0000
  H   H36       1.0  0.66170  0.47190  0.92420  1.0000
  H   H37       1.0  0.95840  0.47900  0.72300  1.0000
  H   H38       1.0  0.75600  0.23540  0.27700  1.0000
  H   H39       1.0  0.24400  0.52100  0.47940  1.0000
  H   H40       1.0  0.04160  0.76460  0.52060  1.0000
  H   H41       1.0  0.72300  0.95840  0.47900  1.0000
  H   H42       1.0  0.27700  0.75600  0.23540  1.0000
  H   H43       1.0  0.47940  0.24400  0.52100  1.0000
  H   H44       1.0  0.52060  0.04160  0.76460  1.0000
  H   H45       1.0  0.47900  0.72300  0.95840  1.0000
  H   H46       1.0  0.23540  0.27700  0.75600  1.0000
  H   H47       1.0  0.52100  0.47940  0.24400  1.0000
  H   H48       1.0  0.76460  0.52060  0.04160  1.0000
  H   H49       1.0  0.96580  0.50480  0.62880  1.0000
  H   H50       1.0  0.87600  0.33700  0.37120  1.0000
  H   H51       1.0  0.12400  0.49520  0.46100  1.0000
  H   H52       1.0  0.03420  0.66300  0.53900  1.0000
  H   H53       1.0  0.62880  0.96580  0.50480  1.0000
  H   H54       1.0  0.37120  0.87600  0.33700  1.0000
  H   H55       1.0  0.46100  0.12400  0.49520  1.0000
  H   H56       1.0  0.53900  0.03420  0.66300  1.0000
  H   H57       1.0  0.50480  0.62880  0.96580  1.0000
  H   H58       1.0  0.33700  0.37120  0.87600  1.0000
  H   H59       1.0  0.49520  0.46100  0.12400  1.0000
  H   H60       1.0  0.66300  0.53900  0.03420  1.0000
