CRYSTAL
PRIMVEC
 -7.03460900000000 7.32859100000000 10.29663600000000
 7.03460900000000 -7.32859100000000 10.29663600000000
 7.03460900000000 7.32859100000000 -10.29663600000000
PRIMCOORD
 4 1
 55     7.03460900000000     0.00000000000000     0.00000000000000
 11     2.98567095943400     0.00000000000000     0.00000000000000
 11    11.08354704056600     0.00000000000000     0.00000000000000
 51     0.00000000000000     0.00000000000000     0.00000000000000
