CRYSTAL
PRIMVEC
 0.00000000000000 13.04129399833334 13.04129399833334
 13.04129399833334 0.00000000000000 13.04129399833334
 13.04129399833334 13.04129399833334 0.00000000000000
PRIMCOORD
 106 1
 30     7.65392676117181     7.65392676117182     5.38736723716152
 30    18.42866123549486    18.42866123549486    20.69522075950515
 30     5.38736723716152     5.38736723716152     5.38736723716152
 30    20.69522075950515    20.69522075950515    20.69522075950515
 30     5.38736723716152     7.65392676117182     7.65392676117181
 30    20.69522075950515    18.42866123549486    18.42866123549486
 30     7.65392676117181     5.38736723716152     7.65392676117181
 30    18.42866123549486    20.69522075950515    18.42866123549486
  8     6.52064699916667     6.52064699916667     6.52064699916667
  8    19.56194099750000    19.56194099750000    19.56194099750000
  8     7.32361649191836     9.56501596321991     5.71767750641498
  8    18.75897150474832    16.51757203344676    20.36491049025169
  8     5.71767750641498     3.47627803511343     5.71767750641498
  8    20.36491049025169    22.60630996155324    20.36491049025169
  8     5.71767750641498     9.56501596321991     7.32361649191836
  8    20.36491049025169    16.51757203344676    18.75897150474832
  8     7.32361649191836     3.47627803511343     7.32361649191836
  8    18.75897150474832    22.60630996155324    18.75897150474832
  8     5.71767750641498     7.32361649191835     9.56501596321991
  8    20.36491049025169    18.75897150474832    16.51757203344676
  8     5.71767750641498     5.71767750641498     3.47627803511343
  8    20.36491049025169    20.36491049025169    22.60630996155324
  8     7.32361649191835     5.71767750641498     9.56501596321991
  8    18.75897150474832    20.36491049025169    16.51757203344676
  8     7.32361649191835     7.32361649191835     3.47627803511343
  8    18.75897150474832    18.75897150474832    22.60630996155324
  8     9.56501596321991     5.71767750641498     7.32361649191836
  8    16.51757203344676    20.36491049025169    18.75897150474832
  8     3.47627803511343     5.71767750641498     5.71767750641498
  8    22.60630996155324    20.36491049025169    20.36491049025169
  8     9.56501596321991     7.32361649191836     5.71767750641498
  8    16.51757203344676    18.75897150474832    20.36491049025169
  8     3.47627803511343     7.32361649191836     7.32361649191836
  8    22.60630996155324    18.75897150474832    18.75897150474832
  6     6.52064699916667    10.14031862483720     6.52064699916667
  6    19.56194099750000    15.94226937182947    19.56194099750000
  6     6.52064699916667     2.90097537349613     6.52064699916667
  6    19.56194099750000    23.18161262317054    19.56194099750000
  6     6.52064699916667     6.52064699916667    10.14031862483720
  6    19.56194099750000    19.56194099750000    15.94226937182947
  6     6.52064699916667     6.52064699916667     2.90097537349613
  6    19.56194099750000    19.56194099750000    23.18161262317054
  6    10.14031862483720     6.52064699916667     6.52064699916667
  6    15.94226937182947    19.56194099750000    19.56194099750000
  6     2.90097537349613     6.52064699916667     6.52064699916667
  6    23.18161262317054    19.56194099750000    19.56194099750000
  6     6.52064699916667    11.64051289557373     6.52064699916667
  6    19.56194099750000    14.44207510109294    19.56194099750000
  6     6.52064699916667     1.40078110275961     6.52064699916667
  6    19.56194099750000    24.68180689390707    19.56194099750000
  6     6.52064699916667     6.52064699916667    11.64051289557373
  6    19.56194099750000    19.56194099750000    14.44207510109294
  6     6.52064699916667     6.52064699916667     1.40078110275960
  6    19.56194099750000    19.56194099750000    24.68180689390707
  6    11.64051289557373     6.52064699916667     6.52064699916667
  6    14.44207510109294    19.56194099750000    19.56194099750000
  6     1.40078110275960     6.52064699916667     6.52064699916667
  6    24.68180689390707    19.56194099750000    19.56194099750000
  6     7.37747429172567    12.34609193062338     5.66381970660767
  6    18.70511370494101    13.73649606604329    20.41876829005900
  6     5.66381970660767     0.69520206770995     5.66381970660767
  6    20.41876829005900    25.38738592895672    20.41876829005900
  6     5.66381970660767    12.34609193062338     7.37747429172567
  6    20.41876829005900    13.73649606604329    18.70511370494101
  6     7.37747429172567     0.69520206770995     7.37747429172567
  6    18.70511370494101    25.38738592895672    18.70511370494101
  6     5.66381970660767     7.37747429172567    12.34609193062338
  6    20.41876829005900    18.70511370494101    13.73649606604329
  6     5.66381970660767     5.66381970660767     0.69520206770995
  6    20.41876829005900    20.41876829005900    25.38738592895672
  6     7.37747429172567     5.66381970660767    12.34609193062338
  6    18.70511370494101    20.41876829005900    13.73649606604329
  6     7.37747429172567     7.37747429172567     0.69520206770995
  6    18.70511370494101    18.70511370494101    25.38738592895672
  6    12.34609193062338     5.66381970660767     7.37747429172567
  6    13.73649606604329    20.41876829005900    18.70511370494101
  6     0.69520206770995     5.66381970660767     5.66381970660767
  6    25.38738592895672    20.41876829005900    20.41876829005900
  6    12.34609193062338     7.37747429172567     5.66381970660767
  6    13.73649606604329    18.70511370494101    20.41876829005900
  6     0.69520206770995     7.37747429172567     7.37747429172567
  6    25.38738592895672    18.70511370494101    18.70511370494101
  1     8.03853958561017    11.78856446413329     5.00275441272317
  1    18.04404841105650    14.29402353253338    21.07983358394350
  1     5.00275441272317     1.25272953420004     5.00275441272317
  1    21.07983358394350    24.82985846246663    21.07983358394350
  1     5.00275441272317    11.78856446413329     8.03853958561017
  1    21.07983358394350    14.29402353253338    18.04404841105650
  1     8.03853958561017     1.25272953420004     8.03853958561017
  1    18.04404841105650    24.82985846246663    18.04404841105650
  1     5.00275441272317     8.03853958561017    11.78856446413329
  1    21.07983358394350    18.04404841105650    14.29402353253338
  1     5.00275441272317     5.00275441272317     1.25272953420004
  1    21.07983358394350    21.07983358394350    24.82985846246663
  1     8.03853958561017     5.00275441272317    11.78856446413329
  1    18.04404841105650    21.07983358394350    14.29402353253338
  1     8.03853958561017     8.03853958561017     1.25272953420004
  1    18.04404841105650    18.04404841105650    24.82985846246663
  1    11.78856446413329     5.00275441272317     8.03853958561017
  1    14.29402353253338    21.07983358394350    18.04404841105650
  1     1.25272953420004     5.00275441272317     5.00275441272317
  1    24.82985846246663    21.07983358394350    21.07983358394350
  1    11.78856446413329     8.03853958561017     5.00275441272317
  1    14.29402353253338    18.04404841105650    21.07983358394350
  1     1.25272953420004     8.03853958561017     8.03853958561017
  1    24.82985846246663    18.04404841105650    18.04404841105650
